FoamFile
{
	version	2.0;
	format	binary;
	class	volScalarField;
	location	"0/fluid";
	object	p;
	arch	"LSB;label=32;scalar=64";
}
dimensions	[1 -1 -2 0 0 0 0];
internalField	uniform 100000.0;
boundaryField
{
	boundaries
	{
		type	calculated;
		value	uniform 100000.0;
	}
	board
	{
		type	calculated;
		value	uniform 100000.0;
	}
	cpu
	{
		type	calculated;
		value	uniform 100000.0;
	}
	fan
	{
		type	calculated;
		value	uniform 100000.0;
	}
	fan_inlet
	{
		type	calculated;
		value	uniform 100000.0;
	}
	outlet
	{
		type	calculated;
		value	uniform 100000.0;
	}
}
